/*--------------------------------*- C++ -*----------------------------------*\
| =========                 |                                                 |
| \\      /  F ield         | OpenFOAM: The Open Source CFD Toolbox           |
|  \\    /   O peration     | Version:  2212                                  |
|   \\  /    A nd           | Website:  www.openfoam.com                      |
|    \\/     M anipulation  |                                                 |
\*---------------------------------------------------------------------------*/
FoamFile
{
    version     2.0;
    format      ascii;
    arch        "LSB;label=32;scalar=64";
    class       polyBoundaryMesh;
    location    "constant/polyMesh";
    object      boundary;
}
// * * * * * * * * * * * * * * * * * * * * * * * * * * * * * * * * * * * * * //

6
(
    inlet
    {
        type            patch;
        nFaces          40;
        startFace       15616;
    }
    outlet
    {
        type            patch;
        nFaces          40;
        startFace       15656;
    }
    obstacle
    {
        type            wall;
        inGroups        1(wall);
        nFaces          32;
        startFace       15696;
    }
    upperWall
    {
        type            wall;
        inGroups        1(wall);
        nFaces          200;
        startFace       15728;
    }
    lowerWall
    {
        type            wall;
        inGroups        1(wall);
        nFaces          200;
        startFace       15928;
    }
    frontAndBack
    {
        type            empty;
        inGroups        1(empty);
        nFaces          15872;
        startFace       16128;
    }
)

// ************************************************************************* //
