/*--------------------------------*- C++ -*----------------------------------*\
  =========                 |
  \\      /  F ield         | OpenFOAM: The Open Source CFD Toolbox
   \\    /   O peration     | Website:  https://openfoam.org
    \\  /    A nd           | Version:  10
     \\/     M anipulation  |
\*---------------------------------------------------------------------------*/
FoamFile
{
    format      ascii;
    class       polyBoundaryMesh;
    location    "constant/polyMesh";
    object      boundary;
}
// * * * * * * * * * * * * * * * * * * * * * * * * * * * * * * * * * * * * * //

6
(
    inlet
    {
        type            patch;
        nFaces          40;
        startFace       15616;
    }
    outlet
    {
        type            patch;
        nFaces          40;
        startFace       15656;
    }
    obstacle
    {
        type            wall;
        inGroups        List<word> 1(wall);
        nFaces          32;
        startFace       15696;
    }
    upperWall
    {
        type            wall;
        inGroups        List<word> 1(wall);
        nFaces          200;
        startFace       15728;
    }
    lowerWall
    {
        type            wall;
        inGroups        List<word> 1(wall);
        nFaces          200;
        startFace       15928;
    }
    frontAndBack
    {
        type            empty;
        inGroups        List<word> 1(empty);
        nFaces          15872;
        startFace       16128;
    }
)

// ************************************************************************* //
